<?xml version="1.0" encoding="UTF-8"?>

<!-- generated on 2022-06-13 17:36:31 by Eclipse SUMO netedit Version 1.11.0
<configuration xmlns:xsi="http://www.w3.org/2001/XMLSchema-instance" xsi:noNamespaceSchemaLocation="http://sumo.dlr.de/xsd/netconvertConfiguration.xsd">

    <input>
        <sumo-net-file value="E:\坚果云\我的坚果云\RL%20code\ONRAMP\map\onramp%20200.net.xml"/>
    </input>

    <output>
        <output-file value="E:\坚果云\我的坚果云\RL%20code\ONRAMP\map\onramp%20200.net.xml"/>
    </output>

    <processing>
        <geometry.min-radius.fix.railways value="false"/>
        <geometry.max-grade.fix value="false"/>
        <offset.disable-normalization value="true"/>
        <lefthand value="false"/>
    </processing>

    <junctions>
        <no-turnarounds value="true"/>
        <junctions.corner-detail value="5"/>
        <junctions.limit-turn-speed value="5.5"/>
        <rectangular-lane-cut value="false"/>
    </junctions>

    <pedestrian>
        <walkingareas value="false"/>
    </pedestrian>

    <report>
        <aggregate-warnings value="5"/>
    </report>

</configuration>
-->

<net version="1.9" junctionCornerDetail="5" limitTurnSpeed="5.50" xmlns:xsi="http://www.w3.org/2001/XMLSchema-instance" xsi:noNamespaceSchemaLocation="http://sumo.dlr.de/xsd/net_file.xsd">

    <location netOffset="0.00,0.00" convBoundary="-0.01,-100.00,600.01,0.02" origBoundary="-10000000000.00,-10000000000.00,10000000000.00,10000000000.00" projParameter="!"/>

    <edge id=":gneJ1_0" function="internal">
        <lane id=":gneJ1_0_0" index="0" speed="9.18" length="3.80" shape="182.15,-12.14 183.13,-11.60 183.86,-11.31 184.63,-11.20 185.75,-11.18"/>
    </edge>
    <edge id=":gneJ1_1" function="internal">
        <lane id=":gneJ1_1_0" index="0" speed="13.89" length="3.86" shape="181.89,-7.98 185.75,-7.98"/>
        <lane id=":gneJ1_1_1" index="1" speed="13.89" length="3.86" shape="181.89,-4.78 185.75,-4.78"/>
        <lane id=":gneJ1_1_2" index="2" speed="13.89" length="3.86" shape="181.89,-1.58 185.75,-1.58"/>
    </edge>
    <edge id=":gneJ2_0" function="internal">
        <lane id=":gneJ2_0_0" index="0" speed="13.89" length="8.00" shape="396.01,-8.00 404.01,-8.00"/>
        <lane id=":gneJ2_0_1" index="1" speed="13.89" length="8.00" shape="396.01,-4.80 404.01,-4.80"/>
        <lane id=":gneJ2_0_2" index="2" speed="13.89" length="8.00" shape="396.01,-1.60 404.01,-1.60"/>
    </edge>

    <edge id="gneE4" from="gneJ0" to="gneJ1" priority="-1" length="200.00">
        <lane id="gneE4_0" index="0" speed="13.89" length="200.00" shape="-0.01,-7.99 181.89,-7.98"/>
        <lane id="gneE4_1" index="1" speed="13.89" length="200.00" shape="-0.01,-4.79 181.89,-4.78"/>
        <lane id="gneE4_2" index="2" speed="13.89" length="200.00" shape="-0.01,-1.59 181.89,-1.58"/>
    </edge>
    <edge id="gneE5" from="gneJ1" to="gneJ2" priority="-1" length="200.00">
        <lane id="gneE5_0" index="0" speed="13.89" length="200.00" shape="185.75,-11.18 396.01,-11.20"/>
        <lane id="gneE5_1" index="1" speed="13.89" length="200.00" shape="185.75,-7.98 396.01,-8.00"/>
        <lane id="gneE5_2" index="2" speed="13.89" length="200.00" shape="185.75,-4.78 396.01,-4.80"/>
        <lane id="gneE5_3" index="3" speed="13.89" length="200.00" shape="185.75,-1.58 396.01,-1.60"/>
    </edge>
    <edge id="gneE6" from="gneJ2" to="gneJ3" priority="-1" length="200.00">
        <lane id="gneE6_0" index="0" speed="13.89" length="200.00" shape="404.01,-8.00 600.01,-8.01"/>
        <lane id="gneE6_1" index="1" speed="13.89" length="200.00" shape="404.01,-4.80 600.01,-4.81"/>
        <lane id="gneE6_2" index="2" speed="13.89" length="200.00" shape="404.01,-1.60 600.01,-1.61"/>
    </edge>
    <edge id="gneE7" from="gneJ5" to="gneJ1" priority="-1" length="200.00">
        <lane id="gneE7_0" index="0" speed="13.89" length="200.00" shape="27.66,-101.39 182.15,-12.14"/>
    </edge>

    <junction id="gneJ0" type="dead_end" x="-0.01" y="0.01" incLanes="" intLanes="" shape="-0.01,0.01 -0.01,-9.59"/>
    <junction id="gneJ1" type="unregulated" x="200.01" y="0.02" incLanes="gneE7_0 gneE4_0 gneE4_1 gneE4_2" intLanes=":gneJ1_0_0 :gneJ1_1_0 :gneJ1_1_1 :gneJ1_1_2" shape="185.75,0.02 185.75,-12.78 184.66,-12.81 184.28,-12.88 183.91,-13.01 183.49,-13.22 182.95,-13.53 181.35,-10.76 182.32,-10.10 182.51,-9.88 182.50,-9.71 182.29,-9.61 181.89,-9.58 181.89,0.02"/>
    <junction id="gneJ2" type="zipper" x="400.01" y="0.00" incLanes="gneE5_0 gneE5_1 gneE5_2 gneE5_3" intLanes=":gneJ2_0_0 :gneJ2_0_1 :gneJ2_0_2" shape="404.01,-0.00 404.01,-9.60 400.98,-10.43 399.04,-11.97 397.80,-12.56 396.01,-12.80 396.01,0.00">
        <request index="0" response="000" foes="000" cont="0"/>
        <request index="1" response="000" foes="000" cont="0"/>
        <request index="2" response="000" foes="000" cont="0"/>
    </junction>
    <junction id="gneJ3" type="dead_end" x="600.01" y="-0.01" incLanes="gneE6_0 gneE6_1 gneE6_2" intLanes="" shape="600.01,-9.61 600.01,-0.01"/>
    <junction id="gneJ5" type="dead_end" x="26.86" y="-100.00" incLanes="" intLanes="" shape="26.86,-100.00 28.46,-102.77"/>

    <connection from="gneE4" to="gneE5" fromLane="0" toLane="1" via=":gneJ1_1_0" dir="s" state="M"/>
    <connection from="gneE4" to="gneE5" fromLane="1" toLane="2" via=":gneJ1_1_1" dir="s" state="M"/>
    <connection from="gneE4" to="gneE5" fromLane="2" toLane="3" via=":gneJ1_1_2" dir="s" state="M"/>
    <connection from="gneE5" to="gneE6" fromLane="1" toLane="0" via=":gneJ2_0_0" dir="s" state="M"/>
    <connection from="gneE5" to="gneE6" fromLane="2" toLane="1" via=":gneJ2_0_1" dir="s" state="M"/>
    <connection from="gneE5" to="gneE6" fromLane="3" toLane="2" via=":gneJ2_0_2" dir="s" state="M"/>
    <connection from="gneE7" to="gneE5" fromLane="0" toLane="0" via=":gneJ1_0_0" dir="s" state="M"/>

    <connection from=":gneJ1_0" to="gneE5" fromLane="0" toLane="0" dir="s" state="M"/>
    <connection from=":gneJ1_1" to="gneE5" fromLane="0" toLane="1" dir="s" state="M"/>
    <connection from=":gneJ1_1" to="gneE5" fromLane="1" toLane="2" dir="s" state="M"/>
    <connection from=":gneJ1_1" to="gneE5" fromLane="2" toLane="3" dir="s" state="M"/>
    <connection from=":gneJ2_0" to="gneE6" fromLane="0" toLane="0" dir="s" state="M"/>
    <connection from=":gneJ2_0" to="gneE6" fromLane="1" toLane="1" dir="s" state="M"/>
    <connection from=":gneJ2_0" to="gneE6" fromLane="2" toLane="2" dir="s" state="M"/>

</net>
