<?xml version="1.0" encoding="UTF-8"?>



<configuration xmlns:xsi="http://www.w3.org/2001/XMLSchema-instance" xsi:noNamespaceSchemaLocation="http://sumo.dlr.de/xsd/sumoConfiguration.xsd">

    <input>
        <net-file value="onramp 200.net.xml"/>
        <route-files value="onramp.rou.xml"/>
    </input>

    <time>
        <begin value="0"/>
        <step-length value="1"/>
    </time>

    <processing>
        <collision.action value="none"/>
    </processing>
</configuration>
