<?xml version="1.0" encoding="UTF-8"?>

<!-- generated on 03/29/22 10:56:30 by Eclipse SUMO netedit Version 1.8.0
<configuration xmlns:xsi="http://www.w3.org/2001/XMLSchema-instance" xsi:noNamespaceSchemaLocation="http://sumo.dlr.de/xsd/netconvertConfiguration.xsd">

    <output>
        <output-file value="G:\RL%20code\freeway%20onramp\onramp.net.xml"/>
    </output>

    <processing>
        <offset.disable-normalization value="true"/>
    </processing>

    <junctions>
        <no-turnarounds value="true"/>
    </junctions>

    <netedit>
        <route-files value="G:\RL%20code\freeway%20onramp\onramp.rou.xml"/>
    </netedit>

    <report>
        <aggregate-warnings value="5"/>
    </report>

</configuration>
-->

<routes xmlns:xsi="http://www.w3.org/2001/XMLSchema-instance" xsi:noNamespaceSchemaLocation="http://sumo.dlr.de/xsd/routes_file.xsd">

    <flow id="flow_0" begin="0.00" from="gneE4" to="gneE6" end="3600.00" number="1200" departLane="random"/>
    <flow id="flow_1" begin="0.00" from="gneE7" to="gneE6" end="3600.00" number="800" color='red'/>
</routes>
